data_image0
_cell_length_a       7.97859
_cell_length_b       7.86591
_cell_length_c       29.4715
_cell_angle_alpha    90
_cell_angle_beta     90
_cell_angle_gamma    90.0023

_symmetry_space_group_name_H-M    "P 1"
_symmetry_int_tables_number       1

loop_
  _symmetry_equiv_pos_as_xyz
  'x, y, z'

loop_
  _atom_site_label
  _atom_site_occupancy
  _atom_site_fract_x
  _atom_site_fract_y
  _atom_site_fract_z
  _atom_site_thermal_displace_type
  _atom_site_B_iso_or_equiv
  _atom_site_type_symbol
  La1      1.0000 0.01034  0.49061  0.21228  Biso   1.000  La
  La2      1.0000 0.50601  0.49081  0.07750  Biso   1.000  La
  La3      1.0000 0.50039  0.99081  0.08496  Biso   1.000  La
  La4      1.0000 0.98944  0.99081  0.08201  Biso   1.000  La
  La5      1.0000 0.52083  0.49067  0.21520  Biso   1.000  La
  La6      1.0000 0.01695  0.49080  0.08044  Biso   1.000  La
  Ti1      1.0000 0.24168  0.24433  0.01099  Biso   1.000  Ti
  Ti2      1.0000 0.74769  0.24479  0.14450  Biso   1.000  Ti
  Ti3      1.0000 0.74209  0.74432  0.01088  Biso   1.000  Ti
  Ti4      1.0000 0.24930  0.74335  0.14460  Biso   1.000  Ti
  Ti5      1.0000 0.76679  0.74363  0.15081  Biso   1.000  Ti
  Ti6      1.0000 0.26152  0.74432  0.01610  Biso   1.000  Ti
  Ti7      1.0000 0.76111  0.24433  0.01621  Biso   1.000  Ti
  Ti8      1.0000 0.26715  0.24433  0.15104  Biso   1.000  Ti
  O1       1.0000 0.70864  0.50227  0.14049  Biso   1.000  O 
  O2       1.0000 0.20252  0.50354  0.00319  Biso   1.000  O 
  O3       1.0000 0.79620  0.00245  0.16081  Biso   1.000  O 
  O4       1.0000 0.30064  0.00354  0.02391  Biso   1.000  O 
  O5       1.0000 0.71299  0.00354  0.00034  Biso   1.000  O 
  O6       1.0000 0.21662  0.00258  0.13816  Biso   1.000  O 
  O7       1.0000 0.79016  0.50354  0.02676  Biso   1.000  O 
  O8       1.0000 0.28921  0.50228  0.16290  Biso   1.000  O 
  O9       1.0000 0.76975  0.30245  0.21843  Biso   1.000  O 
  O10      1.0000 0.26922  0.30333  0.08073  Biso   1.000  O 
  O11      1.0000 0.73701  0.80330  0.08173  Biso   1.000  O 
  O12      1.0000 0.99983  0.80331  0.01793  Biso   1.000  O 
  O13      1.0000 0.50120  0.79800  0.15434  Biso   1.000  O 
  O14      1.0000 0.50331  0.30333  0.00921  Biso   1.000  O 
  O15      1.0000 0.00374  0.29851  0.14665  Biso   1.000  O 
  N1       1.0000 0.73979  0.20809  0.08121  Biso   1.000  N 
  N2       1.0000 0.24220  0.20915  0.21770  Biso   1.000  N 
  N3       1.0000 0.26675  0.70810  0.08125  Biso   1.000  N 
  N4       1.0000 0.50140  0.70807  0.00988  Biso   1.000  N 
  N5       1.0000 0.00314  0.71109  0.14745  Biso   1.000  N 
  N6       1.0000 0.00176  0.20807  0.01718  Biso   1.000  N 
  N7       1.0000 0.50336  0.21123  0.15377  Biso   1.000  N 
  La7      1.0000 0.01691  0.46946  0.48199  Biso   1.000  La
  La8      1.0000 0.50921  0.48977  0.34852  Biso   1.000  La
  La9      1.0000 0.00837  0.99017  0.21833  Biso   1.000  La
  La10     1.0000 0.51615  0.99095  0.35222  Biso   1.000  La
  La11     1.0000 0.00033  0.98886  0.35127  Biso   1.000  La
  La12     1.0000 0.49816  0.99068  0.21603  Biso   1.000  La
  La13     1.0000 0.55026  0.48114  0.48391  Biso   1.000  La
  La14     1.0000 0.02368  0.49037  0.35055  Biso   1.000  La
  Ti9      1.0000 0.25177  0.24442  0.28129  Biso   1.000  Ti
  Ti10     1.0000 0.75401  0.23937  0.41651  Biso   1.000  Ti
  Ti11     1.0000 0.75283  0.74371  0.28141  Biso   1.000  Ti
  Ti12     1.0000 0.25542  0.73837  0.41649  Biso   1.000  Ti
  Ti13     1.0000 0.77324  0.74500  0.42564  Biso   1.000  Ti
  Ti14     1.0000 0.26962  0.74520  0.28530  Biso   1.000  Ti
  Ti15     1.0000 0.77135  0.24640  0.28562  Biso   1.000  Ti
  Ti16     1.0000 0.27576  0.24505  0.42589  Biso   1.000  Ti
  O16      1.0000 0.69927  0.50437  0.41386  Biso   1.000  O 
  O17      1.0000 0.20555  0.50394  0.27562  Biso   1.000  O 
  O18      1.0000 0.82093  0.00562  0.43073  Biso   1.000  O 
  O19      1.0000 0.30304  0.00360  0.29578  Biso   1.000  O 
  O20      1.0000 0.71181  0.00447  0.27423  Biso   1.000  O 
  O21      1.0000 0.20221  0.00426  0.41365  Biso   1.000  O 
  O22      1.0000 0.79491  0.50351  0.29865  Biso   1.000  O 
  O23      1.0000 0.31727  0.50530  0.43246  Biso   1.000  O 
  O24      1.0000 0.77926  0.30900  0.49205  Biso   1.000  O 
  O25      1.0000 0.27407  0.29994  0.35370  Biso   1.000  O 
  O26      1.0000 0.75633  0.80189  0.35408  Biso   1.000  O 
  O27      1.0000 0.24406  0.80187  0.21871  Biso   1.000  O 
  O28      1.0000 0.00316  0.80556  0.28714  Biso   1.000  O 
  O29      1.0000 0.50376  0.81876  0.41924  Biso   1.000  O 
  O30      1.0000 0.50483  0.30555  0.28156  Biso   1.000  O 
  O31      1.0000 0.00561  0.31681  0.41657  Biso   1.000  O 
  N8       1.0000 0.74246  0.21282  0.35360  Biso   1.000  N 
  N9       1.0000 0.22150  0.22542  0.48869  Biso   1.000  N 
  N10      1.0000 0.76362  0.70865  0.21787  Biso   1.000  N 
  N11      1.0000 0.25639  0.71279  0.35344  Biso   1.000  N 
  N12      1.0000 0.50491  0.70875  0.28424  Biso   1.000  N 
  N13      1.0000 0.01295  0.70031  0.42520  Biso   1.000  N 
  N14      1.0000 0.00552  0.20905  0.28942  Biso   1.000  N 
  N15      1.0000 0.51393  0.19892  0.42830  Biso   1.000  N 
  La15     1.0000 0.04620  0.98310  0.48366  Biso   1.000  La
  La16     1.0000 0.51126  0.96660  0.48367  Biso   1.000  La
  O32      1.0000 0.27229  0.80782  0.49279  Biso   1.000  O 
  N16      1.0000 0.72587  0.72610  0.48873  Biso   1.000  N 
